data-files/ieee123.glm
// $Id: IEEE-123.glm 4738 2014-07-03 00:55:39Z dchassin $
//	Copyright (C) 2009 Battelle Memorial Institute

module powerflow {
	solver_method NR;
}

//Phase Conductor for 1 thru 8: 336,400 26/7 ACSR
object overhead_line_conductor:10001 {
	geometric_mean_radius 0.0244  ;
	resistance 0.30600;
}

//Phase Conductor for 9 thru 11: 1/0 ACSR
object overhead_line_conductor:10009 {
	geometric_mean_radius 0.004460  ;
	resistance 1.12000;
}	

//Phase Conductor for neutral: 4/0 6/1 ACSR
object overhead_line_conductor:10002 {
	geometric_mean_radius 0.008140  ;
	resistance 0.59200;
}

// Phase Conductor for 12: 1/0 AA,TS
object underground_line_conductor:10003 { 
	 outer_diameter 1.060000;
	 conductor_gmr 0.011100;
	 conductor_diameter 0.368000;
	 conductor_resistance 0.970000;
	 neutral_gmr 0.011100;
	 neutral_resistance 0.970000;
	 neutral_diameter 0.0640837;
	 neutral_strands 6.000000;
	 shield_gmr 0.000000;
	 shield_resistance 0.000000;
}

// Overhead line configurations
// ABCN
object line_spacing:5001 {
	distance_AB 2.5;
	distance_AC 7.0;
	distance_BC 4.5;
	distance_AN 5.656854;
	distance_BN 4.272002;
	distance_CN 5.0;
}

// CABN
object line_spacing:5002 {
	distance_AB 4.5;
	distance_AC 2.5;
	distance_BC 7.0;
	distance_AN 5.0;
	distance_BN 4.272002;
	distance_CN 5.656854;
}

// BCAN
object line_spacing:5003 {
	distance_AB 7.0;
	distance_AC 4.5;
	distance_BC 2.5;
	distance_AN 5.0;
	distance_BN 5.656854;
	distance_CN 4.272002;
}

// CBAN
object line_spacing:5004 {
	distance_AB 4.5;
	distance_AC 7.0;
	distance_BC 2.5;
	distance_AN 5.0;
	distance_BN 4.272002;
	distance_CN 5.656854;
}

// BACN
object line_spacing:5005 {
	distance_AB 2.5;
	distance_AC 4.5;
	distance_BC 7.0;
	distance_BN 5.656854;
	distance_AN 4.272002;
	distance_CN 5.0;
}

// ACBN
object line_spacing:5006 {
	distance_AB 7.0;
	distance_AC 2.5;
	distance_BC 4.5;
	distance_AN 5.656854;
	distance_CN 4.272002;
	distance_BN 5.0;
}

//ACN
object line_spacing:5007 {
	distance_AB 0.0;
	distance_AC 7.0;
	distance_BC 0.0;
	distance_AN 5.656854;
	distance_BN 0.0;
	distance_CN 5.0;
}

//ABN
object line_spacing:5008 {
	distance_AB 7.0;
	distance_AC 0.0;
	distance_BC 0.0;
	distance_AN 5.656854;
	distance_BN 5.0;
	distance_CN 0.0;
}

//AN
object line_spacing:5009 {
	distance_AB 0.0;
	distance_AC 0.0;
	distance_BC 0.0;
	distance_AN 5.0;
	distance_BN 0.0;
	distance_CN 0.0;
}

//BN
object line_spacing:50010 {
	distance_AB 0.0;
	distance_AC 0.0;
	distance_BC 0.0;
	distance_AN 0.0;
	distance_BN 5.0;
	distance_CN 0.0;
}

//CN
object line_spacing:50011 {
	distance_AB 0.0;
	distance_AC 0.0;
	distance_BC 0.0;
	distance_AN 0.0;
	distance_BN 0.0;
	distance_CN 5.0;
}

//ABC
object line_spacing:50012 {
	distance_AB 0.5;
	distance_AC 1.0;
	distance_BC 0.5;
	distance_AN 0.0;
	distance_BN 0.0;
	distance_CN 0.0;
}


object line_configuration:1001 {
	conductor_A overhead_line_conductor:10001;
	conductor_B overhead_line_conductor:10001;
	conductor_C overhead_line_conductor:10001;
	conductor_N overhead_line_conductor:10002;
	spacing line_spacing:5001;
}

object line_configuration:1002 {
	conductor_A overhead_line_conductor:10001;
	conductor_B overhead_line_conductor:10001;
	conductor_C overhead_line_conductor:10001;
	conductor_N overhead_line_conductor:10002;
	spacing line_spacing:5002;
}

object line_configuration:1003 {
	conductor_A overhead_line_conductor:10001;
	conductor_B overhead_line_conductor:10001;
	conductor_C overhead_line_conductor:10001;
	conductor_N overhead_line_conductor:10002;
	spacing line_spacing:5003;
}

object line_configuration:1004 {
	conductor_A overhead_line_conductor:10001;
	conductor_B overhead_line_conductor:10001;
	conductor_C overhead_line_conductor:10001;
	conductor_N overhead_line_conductor:10002;
	spacing line_spacing:5004;
}

object line_configuration:1005 {
	conductor_A overhead_line_conductor:10001;
	conductor_B overhead_line_conductor:10001;
	conductor_C overhead_line_conductor:10001;
	conductor_N overhead_line_conductor:10002;
	spacing line_spacing:5005;
}

object line_configuration:1006 {
	conductor_A overhead_line_conductor:10001;
	conductor_B overhead_line_conductor:10001;
	conductor_C overhead_line_conductor:10001;
	conductor_N overhead_line_conductor:10002;
	spacing line_spacing:5006;
}

object line_configuration:1007 {
	conductor_A overhead_line_conductor:10001;
	conductor_C overhead_line_conductor:10001;
	conductor_N overhead_line_conductor:10002;
	spacing line_spacing:5007;
}

object line_configuration:1008 {
	conductor_A overhead_line_conductor:10001;
	conductor_B overhead_line_conductor:10001;
	conductor_N overhead_line_conductor:10002;
	spacing line_spacing:5008;
}

object line_configuration:1009 {
	conductor_A overhead_line_conductor:10009;
	conductor_N overhead_line_conductor:10009;
	spacing line_spacing:5009;
}

object line_configuration:10010 {
	conductor_B overhead_line_conductor:10009;
	conductor_N overhead_line_conductor:10009;
	spacing line_spacing:50010;
}

object line_configuration:10011 {
	conductor_C overhead_line_conductor:10009;
	conductor_N overhead_line_conductor:10009;
	spacing line_spacing:50011;
}

object line_configuration:10012 {
	 conductor_A underground_line_conductor:10003;
	 conductor_B underground_line_conductor:10003;
	 conductor_C underground_line_conductor:10003;
	 spacing line_spacing:50012;
}



//Define line objects 
object overhead_line:  {
     phases "BN";
     name "link-1-2";
     from load:1;
     to load:2;
     length 175;
     configuration line_configuration:10010;
}

object overhead_line:  {
     phases "CN";
     name "link-1-3";
     from load:1;
     to node:3;
     length 250;
     configuration line_configuration:10011;
}
 
object overhead_line:  {
     phases "ABCN";
     name "link-1-7";
     from load:1;
     to load:7;
     length 300;
     configuration line_configuration:1001;
}
 
object overhead_line:  {
     phases "CN";
     name "link-3-4";
     from node:3;
     to load:4;
     length 200;
     configuration line_configuration:10011;
}
 
object overhead_line:  {
     phases "CN";
     name "link-3-5";
     from node:3;
     to load:5;
     length 325;
     configuration line_configuration:10011;
}
 
object overhead_line:  {
     phases "CN";
     name "link-5-6";
     from load:5;
     to load:6;
     length 250;
     configuration line_configuration:10011;
}
 
object overhead_line:  {
     phases "ABCN";
     name "link-7-8";
     from load:7;
     to node:8;
     length 200;
     configuration line_configuration:1001;
}
 
object overhead_line:  {
     phases "BN";
     name "link-8-12";
     from node:8;
     to load:12;
     length 225;
     configuration line_configuration:10010;
}
 
object overhead_line:  {
     phases "AN";
     name "link-8-9";
     from node:8;
     to load:9;
     length 225;
     configuration line_configuration:1009;
}
 
object overhead_line:  {
     phases "ABCN";
     name "link-8-13";
     from node:8;
     to node:13;
     length 300;
     configuration line_configuration:1001;
}
 
object overhead_line:  {
     phases "AN";
     name "link-1401-14";
     from node:1401;
     to node:14;
     length 425;
     configuration line_configuration:1009;
}
 
object overhead_line:  {
     phases "CN";
     name "link-13-34";
     from node:13;
     to load:34;
     length 150;
     configuration line_configuration:10011;
}
 
object overhead_line:  {
     phases "ABCN";
     name "link-13-18";
     from node:13;
     to node:18;
     length 825;
     configuration line_configuration:1002;
}
 
object overhead_line:  {
     phases "AN";
     name "link-14-11";
     from node:14;
     to load:11;
     length 250;
     configuration line_configuration:1009;
}
 
object overhead_line:  {
     phases "AN";
     name "link-14-10";
     from node:14;
     to load:10;
     length 250;
     configuration line_configuration:1009;
}
 
object overhead_line:  {
     phases "CN";
     name "link-15-16";
     from node:15;
     to load:16;
     length 375;
     configuration line_configuration:10011;
}
 
object overhead_line:  {
     phases "CN";
     name "link-15-17";
     from node:15;
     to load:17;
     length 350;
     configuration line_configuration:10011;
}
 
object overhead_line:  {
     phases "AN";
     name "link-18-19";
     from node:18;
     to load:19;
     length 250;
     configuration line_configuration:1009;
}
 
object overhead_line:  {
     phases "ABCN";
     name "link-18-21";
     from node:18;
     to node:21;
     length 300;
     configuration line_configuration:1002;
}
 
object overhead_line:  {
     phases "AN";
     name "link-19-20";
     from load:19;
     to load:20;
     length 325;
     configuration line_configuration:1009;
}
 
object overhead_line:  {
     phases "BN";
     name "link-21-22";
     from node:21;
     to load:22;
     length 525;
     configuration line_configuration:10010;
}
 
object overhead_line:  {
     phases "ABCN";
     name "link-21-23";
     from node:21;
     to node:23;
     length 250;
     configuration line_configuration:1002;
}
 
object overhead_line:  {
     phases "CN";
     name "link-23-24";
     from node:23;
     to load:24;
     length 550;
     configuration line_configuration:10011;
}
 
object overhead_line:  {
     phases "ABCN";
     name "link-23-25";
     from node:23;
     to node:25;
     length 275;
     configuration line_configuration:1002;
}
 
object overhead_line:  {
     phases "ACN";
     name "link-2601-26";
     from node:2601;
     to node:26;
     length 350;
     configuration line_configuration:1007;
}
 
object overhead_line:  {
     phases "ABCN";
     name "link-25-28";
     from node:25;
     to load:28;
     length 200;
     configuration line_configuration:1002;
}
 
object overhead_line:  {
     phases "ACN";
     name "link-26-27";
     from node:26;
     to node:27;
     length 275;
     configuration line_configuration:1007;
}
 
object overhead_line:  {
     phases "CN";
     name "link-26-31";
     from node:26;
     to load:31;
     length 225;
     configuration line_configuration:10011;
}
 
object overhead_line:  {
     phases "AN";
     name "link-27-33";
     from node:27;
     to load:33;
     length 500;
     configuration line_configuration:1009;
}
 
object overhead_line:  {
     phases "ABCN";
     name "link-28-29";
     from load:28;
     to load:29;
     length 300;
     configuration line_configuration:1002;
}
 
object overhead_line:  {
     phases "ABCN";
     name "link-29-30";
     from load:29;
     to load:30;
     length 350;
     configuration line_configuration:1002;
}
 
object overhead_line:  {
     phases "ABCN";
     name "link-30-250";
     from load:30;
     to node:250;
     length 200;
     configuration line_configuration:1002;
}
 
object overhead_line:  {
     phases "CN";
     name "link-31-32";
     from load:31;
     to load:32;
     length 300;
     configuration line_configuration:10011;
}
 
object overhead_line:  {
     phases "CN";
     name "link-34-15";
     from load:34;
     to node:15;
     length 100;
     configuration line_configuration:10011;
}
 
object overhead_line:  {
     phases "ABN";
     name "link-35-36";
     from load:35;
     to node:36;
     length 650;
     configuration line_configuration:1008;
}
 
object overhead_line:  {
     phases "ABCN";
     name "link-35-40";
     from load:35;
     to node:40;
     length 250;
     configuration line_configuration:1001;
}
 
object overhead_line:  {
     phases "AN";
     name "link-36-37";
     from node:36;
     to load:37;
     length 300;
     configuration line_configuration:1009;
}
 
object overhead_line:  {
     phases "BN";
     name "link-36-38";
     from node:36;
     to load:38;
     length 250;
     configuration line_configuration:10010;
}
 
object overhead_line:  {
     phases "BN";
     name "link-38-39";
     from load:38;
     to load:39;
     length 325;
     configuration line_configuration:10010;
}
 
object overhead_line:  {
     phases "CN";
     name "link-40-41";
     from node:40;
     to load:41;
     length 325;
     configuration line_configuration:10011;
}
 
object overhead_line:  {
     phases "ABCN";
     name "link-40-42";
     from node:40;
     to load:42;
     length 250;
     configuration line_configuration:1001;
}
 
object overhead_line:  {
     phases "BN";
     name "link-42-43";
     from load:42;
     to load:43;
     length 500;
     configuration line_configuration:10010;
}
 
object overhead_line:  {
     phases "ABCN";
     name "link-42-44";
     from load:42;
     to node:44;
     length 200;
     configuration line_configuration:1001;
}
 
object overhead_line:  {
     phases "AN";
     name "link-44-45";
     from node:44;
     to load:45;
     length 200;
     configuration line_configuration:1009;
}
 
object overhead_line:  {
     phases "ABCN";
     name "link-44-47";
     from node:44;
     to load:47;
     length 250;
     configuration line_configuration:1001;
}
 
object overhead_line:  {
     phases "AN";
     name "link-45-46";
     from load:45;
     to load:46;
     length 300;
     configuration line_configuration:1009;
}
 
object overhead_line:  {
     phases "ABCN";
     name "link-47-48";
     from load:47;
     to load:48;
     length 150;
     configuration line_configuration:1004;
}
 
object overhead_line:  {
     phases "ABCN";
     name "link-47-49";
     from load:47;
     to load:49;
     length 250;
     configuration line_configuration:1004;
}
 
object overhead_line:  {
     phases "ABCN";
     name "link-49-50";
     from load:49;
     to load:50;
     length 250;
     configuration line_configuration:1004;
}
 
object overhead_line:  {
     phases "ABCN";
     name "link-50-51";
     from load:50;
     to load:51;
     length 250;
     configuration line_configuration:1004;
}

object overhead_line:  {
     phases "ABCN";			//undefined line segment
     name "link-51-151";
     from load:51;
     to node:151;
     length 700;
     configuration line_configuration:1004;
}
 
object overhead_line:  {
     phases "ABCN";
     name "link-52-53";
     from load:52;
     to load:53;
     length 200;
     configuration line_configuration:1001;
}
 
object overhead_line:  {
     phases "ABCN";
     name "link-53-54";
     from load:53;
     to node:54;
     length 125;
     configuration line_configuration:1001;
}
 
object overhead_line:  {
     phases "ABCN";
     name "link-54-55";
     from node:54;
     to load:55;
     length 275;
     configuration line_configuration:1001;
}
 
object overhead_line:  {
     phases "ABCN";
     name "link-54-57";
     from node:54;
     to node:57;
     length 350;
     configuration line_configuration:1003;
}
 
object overhead_line:  {
     phases "ABCN";
     name "link-55-56";
     from load:55;
     to load:56;
     length 275;
     configuration line_configuration:1001;
}
 
object overhead_line:  {
     phases "BN";
     name "link-57-58";
     from node:57;
     to load:58;
     length 250;
     configuration line_configuration:10010;
}
 
object overhead_line:  {
     phases "ABCN";
     name "link-57-60";
     from node:57;
     to load:60;
     length 750;
     configuration line_configuration:1003;
}
 
object overhead_line:  {
     phases "BN";
     name "link-58-59";
     from load:58;
     to load:59;
     length 250;
     configuration line_configuration:10010;
}
 
object overhead_line:  {
     phases "ABCN";
     name "link-60-61";
     from load:60;
     to node:61;
     length 550;
     configuration line_configuration:1005;
}
 
object underground_line:  {
     phases "ABC";
     name "link-60-62";
     from load:60;
     to load:62;
     length 250;
     configuration line_configuration:10012;
}
 
object underground_line:  {
     phases "ABC";
     name "link-62-63";
     from load:62;
     to load:63;
     length 175;
     configuration line_configuration:10012;
}
 
object underground_line:  {
     phases "ABC";
     name "link-63-64";
     from load:63;
     to load:64;
     length 350;
     configuration line_configuration:10012;
}
 
object underground_line:  {
     phases "ABC";
     name "link-64-65";
     from load:64;
     to load:65;
     length 425;
     configuration line_configuration:10012;
}
 
object underground_line:  {
     phases "ABC";
     name "link-65-66";
     from load:65;
     to load:66;
     length 325;
     configuration line_configuration:10012;
}
 
object overhead_line:  {
     phases "AN";
     name "link-67-68";
     from node:67;
     to load:68;
     length 200;
     configuration line_configuration:1009;
}
 
object overhead_line:  {
     phases "ABCN";
     name "link-67-72";
     from node:67;
     to node:72;
     length 275;
     configuration line_configuration:1003;
}
 
object overhead_line:  {
     phases "ABCN";
     name "link-67-97";
     from node:67;
     to node:97;
     length 250;
     configuration line_configuration:1003;
}
 
object overhead_line:  {
     phases "AN";
     name "link-68-69";
     from load:68;
     to load:69;
     length 275;
     configuration line_configuration:1009;
}
 
object overhead_line:  {
     phases "AN";
     name "link-69-70";
     from load:69;
     to load:70;
     length 325;
     configuration line_configuration:1009;
}
 
object overhead_line:  {
     phases "AN";
     name "link-70-71";
     from load:70;
     to load:71;
     length 275;
     configuration line_configuration:1009;
}
 
object overhead_line:  {
     phases "CN";
     name "link-72-73";
     from node:72;
     to load:73;
     length 275;
     configuration line_configuration:10011;
}
 
object overhead_line:  {
     phases "ABCN";
     name "link-72-76";
     from node:72;
     to load:76;
     length 200;
     configuration line_configuration:1003;
}
 
object overhead_line:  {
     phases "CN";
     name "link-73-74";
     from load:73;
     to load:74;
     length 350;
     configuration line_configuration:10011;
}
 
object overhead_line:  {
     phases "CN";
     name "link-74-75";
     from load:74;
     to load:75;
     length 400;
     configuration line_configuration:10011;
}
 
object overhead_line:  {
     phases "ABCN";
     name "link-76-77";
     from load:76;
     to load:77;
     length 400;
     configuration line_configuration:1006;
}
 
object overhead_line:  {
     phases "ABCN";
     name "link-76-86";
     from load:76;
     to load:86;
     length 700;
     configuration line_configuration:1003;
}
 
object overhead_line:  {
     phases "ABCN";
     name "link-77-78";
     from load:77;
     to node:78;
     length 100;
     configuration line_configuration:1006;
}
 
object overhead_line:  {
     phases "ABCN";
     name "link-78-79";
     from node:78;
     to load:79;
     length 225;
     configuration line_configuration:1006;
}
 
object overhead_line:  {
     phases "ABCN";
     name "link-78-80";
     from node:78;
     to load:80;
     length 475;
     configuration line_configuration:1006;
}
 
object overhead_line:  {
     phases "ABCN";
     name "link-80-81";
     from load:80;
     to node:81;
     length 475;
     configuration line_configuration:1006;
}
 
object overhead_line:  {
     phases "ABCN";
     name "link-81-82";
     from node:81;
     to load:82;
     length 250;
     configuration line_configuration:1006;
}
 
object overhead_line:  {
     phases "CN";
     name "link-81-84";
     from node:81;
     to load:84;
     length 675;
     configuration line_configuration:10011;
}
 
object overhead_line:  {
     phases "ABCN";
     name "link-82-83";
     from load:82;
     to load:83;
     length 250;
     configuration line_configuration:1006;
}
 
object overhead_line:  {
     phases "CN";
     name "link-84-85";
     from load:84;
     to load:85;
     length 475;
     configuration line_configuration:10011;
}
 
object overhead_line:  {
     phases "ABCN";
     name "link-86-87";
     from load:86;
     to load:87;
     length 450;
     configuration line_configuration:1006;
}
 
object overhead_line:  {
     phases "AN";
     name "link-87-88";
     from load:87;
     to load:88;
     length 175;
     configuration line_configuration:1009;
}
 
object overhead_line:  {
     phases "ABCN";
     name "link-87-89";
     from load:87;
     to node:89;
     length 275;
     configuration line_configuration:1006;
}
 
object overhead_line:  {
     phases "BN";
     name "link-89-90";
     from node:89;
     to load:90;
     length 225;
     configuration line_configuration:10010;
}
 
object overhead_line:  {
     phases "ABCN";
     name "link-89-91";
     from node:89;
     to node:91;
     length 225;
     configuration line_configuration:1006;
}
 
object overhead_line:  {
     phases "CN";
     name "link-91-92";
     from node:91;
     to load:92;
     length 300;
     configuration line_configuration:10011;
}
 
object overhead_line:  {
     phases "ABCN";
     name "link-91-93";
     from node:91;
     to node:93;
     length 225;
     configuration line_configuration:1006;
}
 
object overhead_line:  {
     phases "AN";
     name "link-93-94";
     from node:93;
     to load:94;
     length 275;
     configuration line_configuration:1009;
}
 
object overhead_line:  {
     phases "ABCN";
     name "link-93-95";
     from node:93;
     to load:95;
     length 300;
     configuration line_configuration:1006;
}
 
object overhead_line:  {
     phases "BN";
     name "link-95-96";
     from load:95;
     to load:96;
     length 200;
     configuration line_configuration:10010;
}
 
object overhead_line:  {
     phases "ABCN";
     name "link-97-98";
     from node:97;
     to load:98;
     length 275;
     configuration line_configuration:1003;
}
 
object overhead_line:  {
     phases "ABCN";
     name "link-98-99";
     from load:98;
     to load:99;
     length 550;
     configuration line_configuration:1003;
}
 
object overhead_line:  {
     phases "ABCN";
     name "link-99-100";
     from load:99;
     to load:100;
     length 300;
     configuration line_configuration:1003;
}
 
object overhead_line:  {
     phases "ABCN";
     name "link-100-450";
     from load:100;
     to node:450;
     length 800;
     configuration line_configuration:1003;
}
 
object overhead_line:  {
     phases "CN";
     name "link-101-102";
     from node:101;
     to load:102;
     length 225;
     configuration line_configuration:10011;
}
 
object overhead_line:  {
     phases "ABCN";
     name "link-101-105";
     from node:101;
     to node:105;
     length 275;
     configuration line_configuration:1003;
}
 
object overhead_line:  {
     phases "CN";
     name "link-102-103";
     from load:102;
     to load:103;
     length 325;
     configuration line_configuration:10011;
}
 
object overhead_line:  {
     phases "CN";
     name "link-103-104";
     from load:103;
     to load:104;
     length 700;
     configuration line_configuration:10011;
}
 
object overhead_line:  {
     phases "BN";
     name "link-105-106";
     from node:105;
     to load:106;
     length 225;
     configuration line_configuration:10010;
}
 
object overhead_line:  {
     phases "ABCN";
     name "link-105-108";
     from node:105;
     to node:108;
     length 325;
     configuration line_configuration:1003;
}
 
object overhead_line:  {
     phases "BN";
     name "link-106-107";
     from load:106;
     to load:107;
     length 575;
     configuration line_configuration:10010;
}
 
object overhead_line:  {
     phases "AN";
     name "link-108-109";
     from node:108;
     to load:109;
     length 450;
     configuration line_configuration:1009;
}
 
object overhead_line:  {
     phases "ABCN";
     name "link-108-300";
     from node:108;
     to node:300;
     length 1000;
     configuration line_configuration:1003;
}
 
object overhead_line:  {
     phases "AN";
     name "link-109-110";
     from load:109;
     to node:110;
     length 300;
     configuration line_configuration:1009;
}
 
object overhead_line:  {
     phases "AN";
     name "link-110-111";
     from node:110;
     to load:111;
     length 575;
     configuration line_configuration:1009;
}
 
object overhead_line:  {
     phases "AN";
     name "link-110-112";
     from node:110;
     to load:112;
     length 125;
     configuration line_configuration:1009;
}
 
object overhead_line:  {
     phases "AN";
     name "link-112-113";
     from load:112;
     to load:113;
     length 525;
     configuration line_configuration:1009;
}
 
object overhead_line:  {
     phases "AN";
     name "link-113-114";
     from load:113;
     to load:114;
     length 325;
     configuration line_configuration:1009;
}
 
object overhead_line:  {
     phases "ABCN";
     name "link-135-35";
     from node:135;
     to load:35;
     length 375;
     configuration line_configuration:1004;
}
 
object overhead_line:  {
     phases "ABCN";
     name "link-149-1";
     from node:149;
     to load:1;
     length 400;
     configuration line_configuration:1001;
}
 
object overhead_line:  {
     phases "ABCN";
     name "link-152-52";
     from node:152;
     to load:52;
     length 400;
     configuration line_configuration:1001;
}
 
object overhead_line:  {
     phases "ABCN";
     name "link-6701-67";
     from node:6701;
     to node:67;
     length 350;
     configuration line_configuration:1006;
}
 
object overhead_line:  {
     phases "ABCN";
     name "link-197-101";
     from node:197;
     to node:101;
     length 250;
     configuration line_configuration:1003;
}





//Create node only objects 
object node:3 {
     phases "CN";
     name "node-3";
     voltage_A 2401.7771;
     voltage_B -1200.8886-2080.000j;
     voltage_C -1200.8886+2080.000j;
     nominal_voltage 2401.7771;
}
 
 
object node:8 {
     phases "ABCN";
     name "node-8";
     voltage_A 2401.7771;
     voltage_B -1200.8886-2080.000j;
     voltage_C -1200.8886+2080.000j;
     nominal_voltage 2401.7771;
}
 

 
object node:13 {
     phases "ABCN";
     name "node-13";
     voltage_A 2401.7771;
     voltage_B -1200.8886-2080.000j;
     voltage_C -1200.8886+2080.000j;
     nominal_voltage 2401.7771;
}
 
object node:14 {
     phases "AN";
     name "node-14";
     voltage_A 2401.7771;
     voltage_B -1200.8886-2080.000j;
     voltage_C -1200.8886+2080.000j;
     nominal_voltage 2401.7771;
}

object node:1401 {
     phases "AN";
     name "node-1401";
     voltage_A 2401.7771;
     voltage_B -1200.8886-2080.000j;
     voltage_C -1200.8886+2080.000j;
     nominal_voltage 2401.7771;
}
 
object node:15 {
     phases "CN";
     name "node-15";
     voltage_A 2401.7771;
     voltage_B -1200.8886-2080.000j;
     voltage_C -1200.8886+2080.000j;
     nominal_voltage 2401.7771;
}
 
 
object node:18 {
     phases "ABCN";
     name "node-18";
     voltage_A 2401.7771;
     voltage_B -1200.8886-2080.000j;
     voltage_C -1200.8886+2080.000j;
     nominal_voltage 2401.7771;
}
 
 
object node:21 {
     phases "ABCN";
     name "node-21";
     voltage_A 2401.7771;
     voltage_B -1200.8886-2080.000j;
     voltage_C -1200.8886+2080.000j;
     nominal_voltage 2401.7771;
}
 

 
object node:23 {
     phases "ABCN";
     name "node-23";
     voltage_A 2401.7771;
     voltage_B -1200.8886-2080.000j;
     voltage_C -1200.8886+2080.000j;
     nominal_voltage 2401.7771;
}
 

 
object node:25 {
     phases "ABCN";
     name "node-25";
     voltage_A 2401.7771;
     voltage_B -1200.8886-2080.000j;
     voltage_C -1200.8886+2080.000j;
     nominal_voltage 2401.7771;
}
 
object node:26 {
     phases "ACN";
     name "node-26";
     voltage_A 2401.7771;
     voltage_B -1200.8886-2080.000j;
     voltage_C -1200.8886+2080.000j;
     nominal_voltage 2401.7771;
}

object node:2601 {
     phases "ACN";
     name "node-2601";
     voltage_A 2401.7771;
     voltage_B -1200.8886-2080.000j;
     voltage_C -1200.8886+2080.000j;
     nominal_voltage 2401.7771;
}
 
object node:27 {
     phases "ACN";
     name "node-27";
     voltage_A 2401.7771;
     voltage_B -1200.8886-2080.000j;
     voltage_C -1200.8886+2080.000j;
     nominal_voltage 2401.7771;
}
 

 
object node:36 {
     phases "ABN";
     name "node-36";
     voltage_A 2401.7771;
     voltage_B -1200.8886-2080.000j;
     voltage_C -1200.8886+2080.000j;
     nominal_voltage 2401.7771;
}
 

 
object node:40 {
     phases "ABCN";
     name "node-40";
     voltage_A 2401.7771;
     voltage_B -1200.8886-2080.000j;
     voltage_C -1200.8886+2080.000j;
     nominal_voltage 2401.7771;
}
 

 
object node:44 {
     phases "ABCN";
     name "node-44";
     voltage_A 2401.7771;
     voltage_B -1200.8886-2080.000j;
     voltage_C -1200.8886+2080.000j;
     nominal_voltage 2401.7771;
}
 
 
object node:54 {
     phases "ABCN";
     name "node-54";
     voltage_A 2401.7771;
     voltage_B -1200.8886-2080.000j;
     voltage_C -1200.8886+2080.000j;
     nominal_voltage 2401.7771;
}
 

 
object node:57 {
     phases "ABCN";
     name "node-57";
     voltage_A 2401.7771;
     voltage_B -1200.8886-2080.000j;
     voltage_C -1200.8886+2080.000j;
     nominal_voltage 2401.7771;
}
 
 
object node:61 {
     phases "ABCN";
     name "node-61";
     voltage_A 2401.7771;
     voltage_B -1200.8886-2080.000j;
     voltage_C -1200.8886+2080.000j;
     nominal_voltage 2401.7771;
}
 

 
object node:67 {
     phases "ABCN";
     name "node-67";
     voltage_A 2401.7771;
     voltage_B -1200.8886-2080.000j;
     voltage_C -1200.8886+2080.000j;
     nominal_voltage 2401.7771;
}

object node:6701 {
     phases "ABCN";
     name "node-6701";
     voltage_A 2401.7771;
     voltage_B -1200.8886-2080.000j;
     voltage_C -1200.8886+2080.000j;
     nominal_voltage 2401.7771;
}
  
object node:72 {
     phases "ABCN";
     name "node-72";
     voltage_A 2401.7771;
     voltage_B -1200.8886-2080.000j;
     voltage_C -1200.8886+2080.000j;
     nominal_voltage 2401.7771;
}
 

 
object node:78 {
     phases "ABCN";
     name "node-78";
     voltage_A 2401.7771;
     voltage_B -1200.8886-2080.000j;
     voltage_C -1200.8886+2080.000j;
     nominal_voltage 2401.7771;
}
 

 
object node:81 {
     phases "ABCN";
     name "node-81";
     voltage_A 2401.7771;
     voltage_B -1200.8886-2080.000j;
     voltage_C -1200.8886+2080.000j;
     nominal_voltage 2401.7771;
}
 


 
object node:89 {
     phases "ABCN";
     name "node-89";
     voltage_A 2401.7771;
     voltage_B -1200.8886-2080.000j;
     voltage_C -1200.8886+2080.000j;
     nominal_voltage 2401.7771;
}
 

 
object node:91 {
     phases "ABCN";
     name "node-91";
     voltage_A 2401.7771;
     voltage_B -1200.8886-2080.000j;
     voltage_C -1200.8886+2080.000j;
     nominal_voltage 2401.7771;
}
 
object node:93 {
     phases "ABCN";
     name "node-93";
     voltage_A 2401.7771;
     voltage_B -1200.8886-2080.000j;
     voltage_C -1200.8886+2080.000j;
     nominal_voltage 2401.7771;
}
  
object node:97 {
     phases "ABCN";
     name "node-97";
     voltage_A 2401.7771;
     voltage_B -1200.8886-2080.000j;
     voltage_C -1200.8886+2080.000j;
     nominal_voltage 2401.7771;
}
  
object node:101 {
     phases "ABCN";
     name "node-101";
     voltage_A 2401.7771;
     voltage_B -1200.8886-2080.000j;
     voltage_C -1200.8886+2080.000j;
     nominal_voltage 2401.7771;
}
 

 
object node:105 {
     phases "ABCN";
     name "node-105";
     voltage_A 2401.7771;
     voltage_B -1200.8886-2080.000j;
     voltage_C -1200.8886+2080.000j;
     nominal_voltage 2401.7771;
}
  
object node:108 {
     phases "ABCN";
     name "node-108";
     voltage_A 2401.7771;
     voltage_B -1200.8886-2080.000j;
     voltage_C -1200.8886+2080.000j;
     nominal_voltage 2401.7771;
}
  
object node:110 {
     phases "AN";
     name "node-110";
     voltage_A 2401.7771;
     voltage_B -1200.8886-2080.000j;
     voltage_C -1200.8886+2080.000j;
     nominal_voltage 2401.7771;
}
  
object node:135 {
     phases "ABCN";
     name "node-135";
     voltage_A 2401.7771;
     voltage_B -1200.8886-2080.000j;
     voltage_C -1200.8886+2080.000j;
     nominal_voltage 2401.7771;
}
 
object node:149 {
     phases "ABCN";
     name "node-149";
     voltage_A 2401.7771;
     voltage_B -1200.8886-2080.000j;
     voltage_C -1200.8886+2080.000j;
     nominal_voltage 2401.7771;
}

object node:1491 {
     phases "ABCN";
     name "node-1491";
     voltage_A 2401.7771;
     voltage_B -1200.8886-2080.000j;
     voltage_C -1200.8886+2080.000j;
     nominal_voltage 2401.7771;
}

object node:150 {
     phases "ABCN";
     name "node-150";
     bustype SWING;
     voltage_A 2401.7771;
     voltage_B -1200.8886-2080.000j;
     voltage_C -1200.8886+2080.000j;
     nominal_voltage 2401.7771;
}
 
object node:151 {
     phases "ABCN";
     name "node-151";
     voltage_A 2401.7771;
     voltage_B -1200.8886-2080.000j;
     voltage_C -1200.8886+2080.000j;
     nominal_voltage 2401.7771;
}

object node:152 {
     phases "ABCN";
     name "node-152";
     voltage_A 2401.7771;
     voltage_B -1200.8886-2080.000j;
     voltage_C -1200.8886+2080.000j;
     nominal_voltage 2401.7771;
}
 
object node:160 {
     phases "ABCN";
     name "node-160";
     voltage_A 2401.7771;
     voltage_B -1200.8886-2080.000j;
     voltage_C -1200.8886+2080.000j;
     nominal_voltage 2401.7771;
}
 
object node:195 {
     phases "ABCN";
     name "node-195";
//     bustype SWING;
     voltage_A 2401.7771;
     voltage_B -1200.8886-2080.000j;
     voltage_C -1200.8886+2080.000j;
     nominal_voltage 2401.7771;
}
 
object node:197 {
     phases "ABCN";
     name "node-197";
     voltage_A 2401.7771;
     voltage_B -1200.8886-2080.000j;
     voltage_C -1200.8886+2080.000j;
     nominal_voltage 2401.7771;
}
 
object node:250 {
     phases "ABCN";
     name "node-250";
     voltage_A 2401.7771;
     voltage_B -1200.8886-2080.000j;
     voltage_C -1200.8886+2080.000j;
     nominal_voltage 2401.7771;
}
 
object node:251 {
     phases "ABCN";
     name "node-251";
//   bustype SWING;
     voltage_A 2401.7771;
     voltage_B -1200.8886-2080.000j;
     voltage_C -1200.8886+2080.000j;
     nominal_voltage 2401.7771;
}
 
object node:300 {
     phases "ABCN";
     name "node-300";
     voltage_A 2401.7771;
     voltage_B -1200.8886-2080.000j;
     voltage_C -1200.8886+2080.000j;
     nominal_voltage 2401.7771;
}
 
object node:350 {
     phases "ABCN";
     name "node-350";
     voltage_A 2401.7771;
     voltage_B -1200.8886-2080.000j;
     voltage_C -1200.8886+2080.000j;
     nominal_voltage 2401.7771;
}
 
object node:450 {
     phases "ABCN";
     name "node-450";
     voltage_A 2401.7771;
     voltage_B -1200.8886-2080.000j;
     voltage_C -1200.8886+2080.000j;
     nominal_voltage 2401.7771;
}
 
object node:451 {
     phases "ABCN";
     name "node-451";
//   bustype SWING;
     voltage_A 2401.7771;
     voltage_B -1200.8886-2080.000j;
     voltage_C -1200.8886+2080.000j;
     nominal_voltage 2401.7771;
}
 
object node:610 {
     phases "ABCN";
     name "node-610";
     voltage_A 480.000+0j;
     voltage_B -240.000-415.6922j;
     voltage_C -240.000+415.6922j;
     nominal_voltage 480.000;
}

object node:611 {
     phases "ABCN";
     name "node-611";
     voltage_A 2401.7771;
     voltage_B -1200.8886-2080.000j;
     voltage_C -1200.8886+2080.000j;
     nominal_voltage 2401.7771;
}




//Create load objects
object load:1 {
     name "node-1";
     phases "ABCN";
     voltage_A 2401.7771;
     voltage_B -1200.8886-2080.000j;
     voltage_C -1200.8886+2080.000j;
     constant_power_A 40000+20000j;
     nominal_voltage 2401.7771;
}
 
object load:2 {
     name "node-2";
     phases "BN";
     voltage_A 2401.7771;
     voltage_B -1200.8886-2080.000j;
     voltage_C -1200.8886+2080.000j;
     constant_power_B 20000+10000j;
     nominal_voltage 2401.7771;
}
 
object load:4 {
     name "node-4";
     phases "CN";
     voltage_A 2401.7771;
     voltage_B -1200.8886-2080.000j;
     voltage_C -1200.8886+2080.000j;
     constant_power_C 40000+20000j;
     nominal_voltage 2401.7771;
}
 
object load:5 {
     name "node-5";
     phases "CN";
     voltage_A 2401.7771;
     voltage_B -1200.8886-2080.000j;
     voltage_C -1200.8886+2080.000j;
     constant_current_C -0.55781+9.2933j;
     nominal_voltage 2401.7771;
}
 
object load:6 {
     name "node-6";
     phases "CN";
     voltage_A 2401.7771;
     voltage_B -1200.8886-2080.000j;
     voltage_C -1200.8886+2080.000j;
     constant_impedance_C 115.3707+57.6853j;
     nominal_voltage 2401.7771;
}
 
object load:7 {
     name "node-7";
     phases "ABCN";
     voltage_A 2401.7771;
     voltage_B -1200.8886-2080.000j;
     voltage_C -1200.8886+2080.000j;
     constant_power_A 20000+10000j;
     nominal_voltage 2401.7771;
}
 
object load:9 {
     name "node-9";
     phases "AN";
     voltage_A 2401.7771;
     voltage_B -1200.8886-2080.000j;
     voltage_C -1200.8886+2080.000j;
     constant_power_A 40000+20000j;
     nominal_voltage 2401.7771;
}
 
object load:10 {
     name "node-10";
     phases "AN";
     voltage_A 2401.7771;
     voltage_B -1200.8886-2080.000j;
     voltage_C -1200.8886+2080.000j;
     constant_current_A 8.3272-4.1636j;
     nominal_voltage 2401.7771;
}
 
object load:11 {
     name "node-11";
     phases "AN";
     voltage_A 2401.7771;
     voltage_B -1200.8886-2080.000j;
     voltage_C -1200.8886+2080.000j;
     constant_impedance_A 115.3707+57.6853j;
     nominal_voltage 2401.7771;
}
 
object load:12 {
     name "node-12";
     phases "BN";
     voltage_A 2401.7771;
     voltage_B -1200.8886-2080.000j;
     voltage_C -1200.8886+2080.000j;
     constant_power_B 20000+10000j;
     nominal_voltage 2401.7771;
}
 
object load:16 {
     name "node-16";
     phases "CN";
     voltage_A 2401.7771;
     voltage_B -1200.8886-2080.000j;
     voltage_C -1200.8886+2080.000j;
     constant_power_C 40000+20000j;
     nominal_voltage 2401.7771;
}
 
object load:17 {
     name "node-17";
     phases "CN";
     voltage_A 2401.7771;
     voltage_B -1200.8886-2080.000j;
     voltage_C -1200.8886+2080.000j;
     constant_power_C 20000+10000j;
     nominal_voltage 2401.7771;
}
 
object load:19 {
     name "node-19";
     phases "AN";
     voltage_A 2401.7771;
     voltage_B -1200.8886-2080.000j;
     voltage_C -1200.8886+2080.000j;
     constant_power_A 40000+20000j;
     nominal_voltage 2401.7771;
}
 
object load:20 {
     name "node-20";
     phases "AN";
     voltage_A 2401.7771;
     voltage_B -1200.8886-2080.000j;
     voltage_C -1200.8886+2080.000j;
     constant_current_A 16.6543-8.3272j;
     nominal_voltage 2401.7771;
}
 
object load:22 {
     name "node-22";
     phases "BN";
     voltage_A 2401.7771;
     voltage_B -1200.8886-2080.000j;
     voltage_C -1200.8886+2080.000j;
     constant_impedance_B 115.3707+57.6853j;
     nominal_voltage 2401.7771;
}
 
object load:24 {
     name "node-24";
     phases "CN";
     voltage_A 2401.7771;
     voltage_B -1200.8886-2080.000j;
     voltage_C -1200.8886+2080.000j;
     constant_power_C 40000+20000j;
     nominal_voltage 2401.7771;
}
 
object load:28 {
     name "node-28";
     phases "ABCN";
     voltage_A 2401.7771;
     voltage_B -1200.8886-2080.000j;
     voltage_C -1200.8886+2080.000j;
     constant_current_A 16.6543-8.3272j;
     nominal_voltage 2401.7771;
}
 
object load:29 {
     name "node-29";
     phases "ABCN";
     voltage_A 2401.7771;
     voltage_B -1200.8886-2080.000j;
     voltage_C -1200.8886+2080.000j;
     constant_impedance_A 115.3707+57.6853j;
     nominal_voltage 2401.7771;
}
 
object load:30 {
     name "node-30";
     phases "ABCN";
     voltage_A 2401.7771;
     voltage_B -1200.8886-2080.000j;
     voltage_C -1200.8886+2080.000j;
     constant_power_C 40000+20000j;
     nominal_voltage 2401.7771;
}
 
object load:31 {
     name "node-31";
     phases "CN";
     voltage_A 2401.7771;
     voltage_B -1200.8886-2080.000j;
     voltage_C -1200.8886+2080.000j;
     constant_power_C 20000+10000j;
     nominal_voltage 2401.7771;
}
 
object load:32 {
     name "node-32";
     phases "CN";
     voltage_A 2401.7771;
     voltage_B -1200.8886-2080.000j;
     voltage_C -1200.8886+2080.000j;
     constant_power_C 20000+10000j;
     nominal_voltage 2401.7771;
}
 
object load:33 {
     name "node-33";
     phases "AN";
     voltage_A 2401.7771;
     voltage_B -1200.8886-2080.000j;
     voltage_C -1200.8886+2080.000j;
     constant_current_A 16.6543-8.3272j;
     nominal_voltage 2401.7771;
}
 
object load:34 {
     name "node-34";
     phases "CN";
     voltage_A 2401.7771;
     voltage_B -1200.8886-2080.000j;
     voltage_C -1200.8886+2080.000j;
     constant_impedance_C 115.3707+57.6853j;
     nominal_voltage 2401.7771;
}
 
object load:35 {
     name "node-35";
     phases "ABCD";
     voltage_A 2401.7771;
     voltage_B -1200.8886-2080.000j;
     voltage_C -1200.8886+2080.000j;
     constant_power_A 40000+20000j;
     nominal_voltage 2401.7771;
}
 
object load:37 {
     name "node-37";
     phases "AN";
     voltage_A 2401.7771;
     voltage_B -1200.8886-2080.000j;
     voltage_C -1200.8886+2080.000j;
     constant_impedance_A 115.3707+57.6853j;
     nominal_voltage 2401.7771;
}
 
object load:38 {
     name "node-38";
     phases "BN";
     voltage_A 2401.7771;
     voltage_B -1200.8886-2080.000j;
     voltage_C -1200.8886+2080.000j;
     constant_current_B -7.7694-5.1297j;
     nominal_voltage 2401.7771;
}
 
object load:39 {
     name "node-39";
     phases "BN";
     voltage_A 2401.7771;
     voltage_B -1200.8886-2080.000j;
     voltage_C -1200.8886+2080.000j;
     constant_power_B 20000+10000j;
     nominal_voltage 2401.7771;
}
 
object load:41 {
     name "node-41";
     phases "CN";
     voltage_A 2401.7771;
     voltage_B -1200.8886-2080.000j;
     voltage_C -1200.8886+2080.000j;
     constant_power_C 20000+10000j;
     nominal_voltage 2401.7771;
}
 
object load:42 {
     name "node-42";
     phases "ABCN";
     voltage_A 2401.7771;
     voltage_B -1200.8886-2080.000j;
     voltage_C -1200.8886+2080.000j;
     constant_power_A 20000+10000j;
     nominal_voltage 2401.7771;
}
 
object load:43 {
     name "node-43";
     phases "BN";
     voltage_A 2401.7771;
     voltage_B -1200.8886-2080.000j;
     voltage_C -1200.8886+2080.000j;
     constant_impedance_B 115.3707+57.6853j;
     nominal_voltage 2401.7771;
}
 
object load:45 {
     name "node-45";
     phases "AN";
     voltage_A 2401.7771;
     voltage_B -1200.8886-2080.000j;
     voltage_C -1200.8886+2080.000j;
     constant_current_A 8.3272-4.1636j;
     nominal_voltage 2401.7771;
}
 
object load:46 {
     name "node-46";
     phases "AN";
     voltage_A 2401.7771;
     voltage_B -1200.8886-2080.000j;
     voltage_C -1200.8886+2080.000j;
     constant_power_A 20000+10000j;
     nominal_voltage 2401.7771;
}
 
object load:47 {
     name "node-47";
     phases "ABCN";
     voltage_A 2401.7771;
     voltage_B -1200.8886-2080.000j;
     voltage_C -1200.8886+2080.000j;
     constant_current_A 14.5725-10.409j;
     constant_current_B -16.3007-7.4157j;
     constant_current_C 1.7282+17.8247j;
     nominal_voltage 2401.7771;
}
 
object load:48 {
     name "node-48";
     phases "ABCN";
     voltage_A 2401.7771;
     voltage_B -1200.8886-2080.000j;
     voltage_C -1200.8886+2080.000j;
     constant_impedance_A 54.5672+38.9766j;
     constant_impedance_B 54.5672+38.9766j;
     constant_impedance_C 54.5672+38.9766j;
     nominal_voltage 2401.7771;
}
 
object load:49 {
     name "node-49";
     phases "ABCN";
     voltage_A 2401.7771;
     voltage_B -1200.8886-2080.000j;
     voltage_C -1200.8886+2080.000j;
     constant_power_A 35000+25000j;
     constant_power_B 70000+50000j;
     constant_power_C 35000+25000j;
     nominal_voltage 2401.7771;
}
 
object load:50 {
     name "node-50";
     phases "ABCN";
     voltage_A 2401.7771;
     voltage_B -1200.8886-2080.000j;
     voltage_C -1200.8886+2080.000j;
     constant_power_C 40000+20000j;
     nominal_voltage 2401.7771;
}
 
object load:51 {
     name "node-51";
     phases "ABCN";
     voltage_A 2401.7771;
     voltage_B -1200.8886-2080.000j;
     voltage_C -1200.8886+2080.000j;
     constant_power_A 20000+10000j;
     nominal_voltage 2401.7771;
}
 
object load:52 {
     name "node-52";
     phases "ABCN";
     voltage_A 2401.7771;
     voltage_B -1200.8886-2080.000j;
     voltage_C -1200.8886+2080.000j;
     constant_power_A 40000+20000j;
     nominal_voltage 2401.7771;
}
 
object load:53 {
     name "node-53";
     phases "ABCN";
     voltage_A 2401.7771;
     voltage_B -1200.8886-2080.000j;
     voltage_C -1200.8886+2080.000j;
     constant_power_A 40000+20000j;
     nominal_voltage 2401.7771;
}
 
object load:55 {
     name "node-55";
     phases "ABCN";
     voltage_A 2401.7771;
     voltage_B -1200.8886-2080.000j;
     voltage_C -1200.8886+2080.000j;
     constant_impedance_A 230.7413+115.3707j;
     nominal_voltage 2401.7771;
}
 
object load:56 {
     name "node-56";
     phases "ABCN";
     voltage_A 2401.7771;
     voltage_B -1200.8886-2080.000j;
     voltage_C -1200.8886+2080.000j;
     constant_power_B 20000+10000j;
     nominal_voltage 2401.7771;
}
 
object load:58 {
     name "node-58";
     phases "BN";
     voltage_A 2401.7771;
     voltage_B -1200.8886-2080.000j;
     voltage_C -1200.8886+2080.000j;
     constant_current_B -7.7694-5.1297j;
     nominal_voltage 2401.7771;
}
 
object load:59 {
     name "node-59";
     phases "BN";
     voltage_A 2401.7771;
     voltage_B -1200.8886-2080.000j;
     voltage_C -1200.8886+2080.000j;
     constant_power_B 20000+10000j;
     nominal_voltage 2401.7771;
}
 
object load:60 {
     name "node-60";
     phases "ABCN";
     voltage_A 2401.7771;
     voltage_B -1200.8886-2080.000j;
     voltage_C -1200.8886+2080.000j;
     constant_power_A 20000+10000j;
     nominal_voltage 2401.7771;
}
 
object load:62 {
     name "node-62";
     phases "ABC";
     voltage_A 2401.7771;
     voltage_B -1200.8886-2080.000j;
     voltage_C -1200.8886+2080.000j;
     constant_impedance_C 115.3707+57.6853j;
     nominal_voltage 2401.7771;
}
 
object load:63 {
     name "node-63";
     phases "ABC";
     voltage_A 2401.7771;
     voltage_B -1200.8886-2080.000j;
     voltage_C -1200.8886+2080.000j;
     constant_power_A 40000+20000j;
     nominal_voltage 2401.7771;
}
 
object load:64 {
     name "node-64";
     phases "ABC";
     voltage_A 2401.7771;
     voltage_B -1200.8886-2080.000j;
     voltage_C -1200.8886+2080.000j;
     constant_current_B -28.2336-19.757j;
     nominal_voltage 2401.7771;
}
 
object load:65 {
     name "node-65";
     phases "ABCD";
     voltage_A 2401.7771;
     voltage_B -1200.8886-2080.000j;
     voltage_C -1200.8886+2080.000j;
     constant_impedance_A 327.4032+233.8595j;
     constant_impedance_B 327.4032+233.8595j;
     constant_impedance_C 163.7016+116.9297j;
     nominal_voltage 2401.7771;
}
 
object load:66 {
     name "node-66";
     phases "ABC";
     voltage_A 2401.7771;
     voltage_B -1200.8886-2080.000j;
     voltage_C -1200.8886+2080.000j;
     constant_power_C 75000+35000j;
     nominal_voltage 2401.7771;
}
 
object load:68 {
     name "node-68";
     phases "AN";
     voltage_A 2401.7771;
     voltage_B -1200.8886-2080.000j;
     voltage_C -1200.8886+2080.000j;
     constant_power_A 20000+10000j;
     nominal_voltage 2401.7771;
}
 
object load:69 {
     name "node-69";
     phases "AN";
     voltage_A 2401.7771;
     voltage_B -1200.8886-2080.000j;
     voltage_C -1200.8886+2080.000j;
     constant_power_A 40000+20000j;
     nominal_voltage 2401.7771;
}
 
object load:70 {
     name "node-70";
     phases "AN";
     voltage_A 2401.7771;
     voltage_B -1200.8886-2080.000j;
     voltage_C -1200.8886+2080.000j;
     constant_power_A 20000+10000j;
     nominal_voltage 2401.7771;
}
 
object load:71 {
     name "node-71";
     phases "AN";
     voltage_A 2401.7771;
     voltage_B -1200.8886-2080.000j;
     voltage_C -1200.8886+2080.000j;
     constant_power_A 40000+20000j;
     nominal_voltage 2401.7771;
}
 
object load:73 {
     name "node-73";
     phases "CN";
     voltage_A 2401.7771;
     voltage_B -1200.8886-2080.000j;
     voltage_C -1200.8886+2080.000j;
     constant_power_C 40000+20000j;
     nominal_voltage 2401.7771;
}
 
object load:74 {
     name "node-74";
     phases "CN";
     voltage_A 2401.7771;
     voltage_B -1200.8886-2080.000j;
     voltage_C -1200.8886+2080.000j;
     constant_impedance_C 115.3707+57.6853j;
     nominal_voltage 2401.7771;
}
 
object load:75 {
     name "node-75";
     phases "CN";
     voltage_A 2401.7771;
     voltage_B -1200.8886-2080.000j;
     voltage_C -1200.8886+2080.000j;
     constant_power_C 40000+20000j;
     nominal_voltage 2401.7771;
}
 
object load:76 {
     name "node-76";
     phases "ABCD";
     voltage_A 2401.7771;
     voltage_B -1200.8886-2080.000j;
     voltage_C -1200.8886+2080.000j;
     constant_current_A 31.4742-4.0341j;
     constant_current_B -12.0192-16.8269j;
     constant_current_C -8.5629+18.8224j;
     nominal_voltage 2401.7771;
}
 
object load:77 {
     name "node-77";
     phases "ABCN";
     voltage_A 2401.7771;
     voltage_B -1200.8886-2080.000j;
     voltage_C -1200.8886+2080.000j;
     constant_power_B 40000+20000j;
     nominal_voltage 2401.7771;
}
 
object load:79 {
     name "node-79";
     phases "ABCN";
     voltage_A 2401.7771;
     voltage_B -1200.8886-2080.000j;
     voltage_C -1200.8886+2080.000j;
     constant_impedance_A 115.3707+57.6853j;
     nominal_voltage 2401.7771;
}
 
object load:80 {
     name "node-80";
     phases "ABCN";
     voltage_A 2401.7771;
     voltage_B -1200.8886-2080.000j;
     voltage_C -1200.8886+2080.000j;
     constant_power_B 40000+20000j;
     nominal_voltage 2401.7771;
}
 
object load:82 {
     name "node-82";
     phases "ABCN";
     voltage_A 2401.7771;
     voltage_B -1200.8886-2080.000j;
     voltage_C -1200.8886+2080.000j;
     constant_power_A 40000+20000j;
     nominal_voltage 2401.7771;
}
 
object load:83 {
     name "node-83";
     phases "ABCN";
     voltage_A 2401.7771;
     voltage_B -1200.8886-2080.000j;
     voltage_C -1200.8886+2080.000j;
     constant_power_C 20000+10000j;
     constant_impedance_A 0.00-28.8427j;          //Shunt Capacitors
     constant_impedance_B 0.00-28.8427j;
     constant_impedance_C 0.00-28.8427j;
     nominal_voltage 2401.7771;
}
 
object load:84 {
     name "node-84";
     phases "CN";
     voltage_A 2401.7771;
     voltage_B -1200.8886-2080.000j;
     voltage_C -1200.8886+2080.000j;
     constant_power_C 20000+10000j;
     nominal_voltage 2401.7771;
}
 
object load:85 {
     name "node-85";
     phases "CN";
     voltage_A 2401.7771;
     voltage_B -1200.8886-2080.000j;
     voltage_C -1200.8886+2080.000j;
     constant_power_C 40000+20000j;
     nominal_voltage 2401.7771;
}
 
object load:86 {
     name "node-86";
     phases "ABCN";
     voltage_A 2401.7771;
     voltage_B -1200.8886-2080.000j;
     voltage_C -1200.8886+2080.000j;
     constant_power_B 20000+10000j;
     nominal_voltage 2401.7771;
}
 
object load:87 {
     name "node-87";
     phases "ABCN";
     voltage_A 2401.7771;
     voltage_B -1200.8886-2080.000j;
     voltage_C -1200.8886+2080.000j;
     constant_power_B 40000+20000j;
     nominal_voltage 2401.7771;
}
 
object load:88 {
     name "node-88";
     phases "AN";
     voltage_A 2401.7771;
     voltage_B -1200.8886-2080.000j;
     voltage_C -1200.8886+2080.000j;
     constant_power_A 40000+20000j;
     constant_impedance_A 0.00-115.7067j;         //Shunt Capacitor
     nominal_voltage 2401.7771;
}
 
object load:90 {
     name "node-90";
     phases "BN";
     voltage_A 2401.7771;
     voltage_B -1200.8886-2080.000j;
     voltage_C -1200.8886+2080.000j;
     constant_current_B -15.5387-10.2595j;
     constant_impedance_B 0.00-115.7067j;         //Shunt Capacitor
     nominal_voltage 2401.7771;
}
 
object load:92 {
     name "node-92";
     phases "CN";
     voltage_A 2401.7771;
     voltage_B -1200.8886-2080.000j;
     voltage_C -1200.8886+2080.000j;
     constant_power_C 40000+20000j;
     constant_impedance_C 0.00-115.7067j;         //Shunt Capacitor
     nominal_voltage 2401.7771;
}
 
object load:94 {
     name "node-94";
     phases "AN";
     voltage_A 2401.7771;
     voltage_B -1200.8886-2080.000j;
     voltage_C -1200.8886+2080.000j;
     constant_power_A 40000+20000j;
     nominal_voltage 2401.7771;
}
 
object load:95 {
     name "node-95";
     phases "ABCN";
     voltage_A 2401.7771;
     voltage_B -1200.8886-2080.000j;
     voltage_C -1200.8886+2080.000j;
     constant_power_B 20000+10000j;
     nominal_voltage 2401.7771;
}
 
object load:96 {
     name "node-96";
     phases "BN";
     voltage_A 2401.7771;
     voltage_B -1200.8886-2080.000j;
     voltage_C -1200.8886+2080.000j;
     constant_power_B 20000+10000j;
     nominal_voltage 2401.7771;
}
 
object load:98 {
     name "node-98";
     phases "ABCN";
     voltage_A 2401.7771;
     voltage_B -1200.8886-2080.000j;
     voltage_C -1200.8886+2080.000j;
     constant_power_A 40000+20000j;
     nominal_voltage 2401.7771;
}
 
object load:99 {
     name "node-99";
     phases "ABCN";
     voltage_A 2401.7771;
     voltage_B -1200.8886-2080.000j;
     voltage_C -1200.8886+2080.000j;
     constant_power_B 40000+20000j;
     nominal_voltage 2401.7771;
}
 
object load:100 {
     name "node-100";
     phases "ABCN";
     voltage_A 2401.7771;
     voltage_B -1200.8886-2080.000j;
     voltage_C -1200.8886+2080.000j;
     constant_impedance_C 115.3707+57.6853j;
     nominal_voltage 2401.7771;
}
 
object load:102 {
     name "node-102";
     phases "CN";
     voltage_A 2401.7771;
     voltage_B -1200.8886-2080.000j;
     voltage_C -1200.8886+2080.000j;
     constant_power_C 20000+10000j;
     nominal_voltage 2401.7771;
}
 
object load:103 {
     name "node-103";
     phases "CN";
     voltage_A 2401.7771;
     voltage_B -1200.8886-2080.000j;
     voltage_C -1200.8886+2080.000j;
     constant_power_C 40000+20000j;
     nominal_voltage 2401.7771;
}
 
object load:104 {
     name "node-104";
     phases "CN";
     voltage_A 2401.7771;
     voltage_B -1200.8886-2080.000j;
     voltage_C -1200.8886+2080.000j;
     constant_power_C 40000+20000j;
     nominal_voltage 2401.7771;
}
 
object load:106 {
     name "node-106";
     phases "BN";
     voltage_A 2401.7771;
     voltage_B -1200.8886-2080.000j;
     voltage_C -1200.8886+2080.000j;
     constant_power_B 40000+20000j;
     nominal_voltage 2401.7771;
}
 
object load:107 {
     name "node-107";
     phases "BN";
     voltage_A 2401.7771;
     voltage_B -1200.8886-2080.000j;
     voltage_C -1200.8886+2080.000j;
     constant_power_B 40000+20000j;
     nominal_voltage 2401.7771;
}
 
object load:109 {
     name "node-109";
     phases "AN";
     voltage_A 2401.7771;
     voltage_B -1200.8886-2080.000j;
     voltage_C -1200.8886+2080.000j;
     constant_power_A 40000+20000j;
     nominal_voltage 2401.7771;
}
 
object load:111 {
     name "node-111";
     phases "AN";
     voltage_A 2401.7771;
     voltage_B -1200.8886-2080.000j;
     voltage_C -1200.8886+2080.000j;
     constant_power_A 20000+10000j;
     nominal_voltage 2401.7771;
}
 
object load:112 {
     name "node-112";
     phases "AN";
     voltage_A 2401.7771;
     voltage_B -1200.8886-2080.000j;
     voltage_C -1200.8886+2080.000j;
     constant_current_A 8.3272-4.1636j;
     nominal_voltage 2401.7771;
}
 
object load:113 {
     name "node-113";
     phases "AN";
     voltage_A 2401.7771;
     voltage_B -1200.8886-2080.000j;
     voltage_C -1200.8886+2080.000j;
     constant_impedance_A 115.3707+57.6853j;
     nominal_voltage 2401.7771;
}
 
object load:114 {
     name "node-114";
     phases "AN";
     voltage_A 2401.7771;
     voltage_B -1200.8886-2080.000j;
     voltage_C -1200.8886+2080.000j;
     constant_power_A 20000+10000j;
     nominal_voltage 2401.7771;
}

// Switches
object switch:13152 {
     phases "ABCN";
     name "link-13-152";
     from node:13;
     to node:152;
     status CLOSED;
}

object switch:18135 {
     phases "ABCN";
     name "link-18-135";
     from node:18;
     to node:135;
     status CLOSED;
}

object switch:60160 {
     phases "ABCN";
     name "link-60-160";
     from load:60;
     to node:160;
     status CLOSED;
}

object switch:61611 {
     phases "ABCN";
     name "link-61-611";
     from node:61;
     to node:611;
     status CLOSED;
}

object switch:97197 {
     phases "ABCN";
     name "link-97-197";
     from node:97;
     to node:197;
     status CLOSED;
}

object switch:1491149 {
     phases "ABCN";
     name "link-1491-149";
     from node:1491;
     to node:149;
     status CLOSED;
}

object switch:250251 {
     phases "ABCN";
     name "link-250-251";
     from node:250;
     to node:251;
     status OPEN;
}

object switch:450451 {
     phases "ABCN";
     name "link-450-451";
     from node:450;
     to node:451;
     status OPEN;
}

object switch:5494 {
     phases "AN";
     name "link-54-94";
     from node:54;
     to load:94;
     status OPEN;
}

object switch:151300 {
     phases "ABCN";
     name "link-151-300";
     from node:151;
     to node:300;
     status OPEN;
}

object switch:300350 {
     phases "ABCN";
     name "link-300-350";
     from node:300;
     to node:350;
     status OPEN;
}

object switch:95195 {
     phases "ABCN";
     name "link-95-195";
     from load:95;
     to node:195;
     status OPEN;
}


// Capacitors
//object load:8398 {
//       name "node-8398";
//       parent 83;
//       phases "ABCN";
//       voltage_A 2401.7771;
//       voltage_B -1200.8886-2080.000j;
//       voltage_C -1200.8886+2080.000j;
//       constant_impedance_A 0.00-28.8427j;
//       constant_impedance_B 0.00-28.8427j;
//       constant_impedance_C 0.00-28.8427j;
//       nominal_voltage 2401.7771;
//}
  
  
   
//object load:8898 {
//       name "node-8898";
//       parent 88;
//       phases "AN";
//       voltage_A 2401.7771;
//       voltage_B -1200.8886-2080.000j;
//       voltage_C -1200.8886+2080.000j;      
//       constant_impedance_A 0.00-115.7067j;
//       nominal_voltage 2401.7771;
//}

//object load:9098 {
//       name "node-9098";
//       parent 90;
//       phases "BN";
//       voltage_A 2401.7771;
//       voltage_B -1200.8886-2080.000j;
//       voltage_C -1200.8886+2080.000j;      
//       constant_impedance_B 0.00-115.7067j;
//       nominal_voltage 2401.7771;
//}

//object load:9298 {
//       name "node-9298";
//       parent 92;
//       phases "CN";
//       voltage_A 2401.7771;
//       voltage_B -1200.8886-2080.000j;
//       voltage_C -1200.8886+2080.000j;      
//       constant_impedance_C 0.00-115.7067j;
//       nominal_voltage 2401.7771;
//}


// Transformer
object transformer_configuration:400 {
	connect_type DELTA_DELTA;
  	install_type PADMOUNT;
  	power_rating 150;
  	primary_voltage 4160;
  	secondary_voltage 480;
  	resistance 0.0127;
  	reactance 0.0272;
}
  
object transformer:611610 {
  	phases "ABCN";
  	name "link-611-610";
  	from node:611;
  	to node:610;
  	configuration transformer_configuration:400;
}



// Regulators
object regulator_configuration:1501490 {
	connect_type 1;
	band_center 120.000;
	band_width 2.0;
	time_delay 30.0;
	raise_taps 16;
	lower_taps 16;
	current_transducer_ratio 700;
	power_transducer_ratio 20;
	compensator_r_setting_A 3.0;
	compensator_x_setting_A 7.5;
	compensator_r_setting_B 3.0;
	compensator_x_setting_B 7.5;
	compensator_r_setting_C 3.0;
	compensator_x_setting_C 7.5;
	CT_phase "ABC";
	PT_phase "ABC";
	regulation 0.10;
	Control MANUAL;
	Type A;
	tap_pos_A 7;
	tap_pos_B 7;
	tap_pos_C 7;
}
  
object regulator:1501491 {
	 phases "ABC";
	 from node:150;
	 to node:1491;
	 configuration regulator_configuration:1501490;
}


object regulator_configuration:2526010 {
	connect_type 1;
	band_center 120.000;
	band_width 1.0;
	time_delay 30.0;
	raise_taps 16;
	lower_taps 16;
	current_transducer_ratio 50;
	power_transducer_ratio 20;
	compensator_r_setting_A 0.4;
	compensator_x_setting_A 0.4;
	compensator_r_setting_C 0.4;
	compensator_x_setting_C 0.4;
	CT_phase "AC";
	PT_phase "AC";
	regulation 0.10;
	Control MANUAL;
	Type A;
	tap_pos_A 0;
	tap_pos_C -1;
}
  
object regulator:252601 {
	 phases "AC";
	 from node:25;
	 to node:2601;
	 configuration regulator_configuration:2526010;
}


...